
**** 05/21/20 14:07:51 ****** PSpice 16.5.0 (April 2011) ****** ID# 0 ********

 ** Profile: "SCHEMATIC1-Worst-Case"  [ D:\University Projects\OrCAD Projects\Final-Schmitt-Trigger\Schmitt-Trigger-PSpiceFiles\SCHEM


 ****     CIRCUIT DESCRIPTION


******************************************************************************




** Creating circuit file "Worst-Case.cir" 
** WARNING: THIS AUTOMATICALLY GENERATED FILE MAY BE OVERWRITTEN BY SUBSEQUENT SIMULATIONS

*Libraries: 
* Profile Libraries :
* Local Libraries :
* From [PSPICE NETLIST] section of C:\Cadence\SPB_16.5\tools\PSpice\PSpice.ini file:
.lib "nom.lib" 

*Analysis directives: 
.TRAN  0 3ms 0 SKIPBP 
.WCASE TRAN V([OUT]) YMAX VARY BOTH  HI 
.PROBE V(alias(*)) I(alias(*)) W(alias(*)) D(alias(*)) NOISE(alias(*)) 
.INC "..\SCHEMATIC1.net" 



**** INCLUDING SCHEMATIC1.net ****
* source SCHMITT-TRIGGER
X_P21         N00405 N48574 OUTS8 POT PARAMS: SET=0.5 VALUE=5k
R_R22         N00405 0 R_R22 1.2k TC=0,0 
.model        R_R22 RES R=1 DEV=1% TC1=0 TC2=0
C_C         N00446 N38624 C_C 10n  TC=0,0 
.model        C_C CAP C=1 DEV=10% TC1=0 TC2=0 VC1=0 VC2=0
R_R11         N00546 OUTS8 R_R11 20k TC=0,0 
.model        R_R11 RES R=1 DEV=1% TC1=0 TC2=0
R_R13         N00546 N38624 R_R13 4.7k TC=0,0 
.model        R_R13 RES R=1 DEV=1% TC1=0 TC2=0
R_R24         N48574 N00446 R_R24 10k TC=0,0 
.model        R_R24 RES R=1 DEV=1% TC1=0 TC2=0
V_V1         +VCC 0 15Vdc
V_V2         -VCC 0 -15Vdc
X_U1A         N00546 0 +VCC -VCC OUTS8 TL082
X_U1B         0 N00446 +VCC -VCC N38624 TL082
R_Rload         OUT 0 R_Rload 25 TC=0,0 
.model        R_Rload RES R=1 DEV=1% TC1=0 TC2=0
D_D2         N38315 N38305 D1N1190 
D_D1         N38243 N38315 D1N1190 
Q_Q2         -VCC N38305 OUT MPS2907
R_R41         +VCC N38243 R_R41 1.2k TC=0,0 
.model        R_R41 RES R=1 DEV=5% TC1=0 TC2=0
Q_Q1         +VCC N38243 OUT MPS2716
R_R42         N38305 -VCC R_R42 1.2k TC=0,0 
.model        R_R42 RES R=1 DEV=5% TC1=0 TC2=0
X_U2B         N38624 N43623 +VCC -VCC N38315 TL082
R_R31         N43623 0 R_R31 10k TC=0,0 
.model        R_R31 RES R=1 DEV=1% TC1=0 TC2=0
R_R32         N43623 N43925 R_R32 10k TC=0,0 
.model        R_R32 RES R=1 DEV=1% TC1=0 TC2=0
X_P33         N43925 N43925 OUT POT PARAMS: SET={SET} VALUE=10k
D_Dz1         N45778 OUTS8 BZ-075 
D_Dz2         N45778 0 BZ-075 
.PARAM  set=0.5

**** RESUMING Worst-Case.cir ****
.END

**** 05/21/20 14:07:51 ****** PSpice 16.5.0 (April 2011) ****** ID# 0 ********

 ** Profile: "SCHEMATIC1-Worst-Case"  [ D:\University Projects\OrCAD Projects\Final-Schmitt-Trigger\Schmitt-Trigger-PSpiceFiles\SCHEM


 ****     Diode MODEL PARAMETERS


******************************************************************************




               D1N1190         BZ-075          X_U1A.dx        X_U1A.dy        
          IS    1.331000E-06   10.000000E-15  800.000000E-18  800.000000E-18 
           N    2.108                                                        
         ISR   40.740000E-06    5.848000E-06                                 
         IKF   11.73                                                         
          BV  400               7.54                                         
         IBV  100.000000E-06     .1437                                       
          RS    1.029000E-03    1.000000E-03                    1.000000E-03 
          TT    5.000000E-09  144.300000E-09                                 
         CJO    1.000000E-12    1.000000E-12                   10.000000E-12 
          VJ     .7              .75                                         
           M                     .3333                                       


               X_U1B.dx        X_U1B.dy        X_U2B.dx        X_U2B.dy        
          IS  800.000000E-18  800.000000E-18  800.000000E-18  800.000000E-18 
          RS                    1.000000E-03                    1.000000E-03 
         CJO                   10.000000E-12                   10.000000E-12 


**** 05/21/20 14:07:51 ****** PSpice 16.5.0 (April 2011) ****** ID# 0 ********

 ** Profile: "SCHEMATIC1-Worst-Case"  [ D:\University Projects\OrCAD Projects\Final-Schmitt-Trigger\Schmitt-Trigger-PSpiceFiles\SCHEM


 ****     BJT MODEL PARAMETERS


******************************************************************************




               MPS2907         MPS2716         
               PNP             NPN             
       LEVEL    1               1            
          IS    4.661000E-15    6.734000E-15 
          BF  402.8           383.9          
          NF    1               1            
         VAF  100              74.03         
         IKF     .1132           .06532      
         ISE   14.550000E-15    6.734000E-15 
          NE    1.352           1.247        
          BR    3.07             .7482       
          NR    1               1            
         ISS    0               0            
          RB   10              10            
          RE    0               0            
          RC     .6             1            
         CJE   26.220000E-12    4.493000E-12 
         VJE     .75             .75         
         MJE     .3809           .2593       
         CJC   21.350000E-12    3.118000E-12 
         VJC     .75             .75         
         MJC     .5234           .3086       
        XCJC    1               1            
         CJS    0               0            
         VJS     .75             .75         
          TF  417.600000E-12  301.500000E-12 
         XTF   20               2            
         VTF   12               4            
         ITF     .8              .4          
          TR   32.630000E-09  240.300000E-09 
         XTB    1.5             1.5          
          KF    0               0            
          AF    1               1            
          CN    2.2             2.42         
           D     .52             .87         


**** 05/21/20 14:07:51 ****** PSpice 16.5.0 (April 2011) ****** ID# 0 ********

 ** Profile: "SCHEMATIC1-Worst-Case"  [ D:\University Projects\OrCAD Projects\Final-Schmitt-Trigger\Schmitt-Trigger-PSpiceFiles\SCHEM


 ****     Junction FET MODEL PARAMETERS


******************************************************************************




               X_U1A.jx1       X_U1A.jx2       X_U1B.jx1       X_U1B.jx2       
               NJF             NJF             NJF             NJF             
         VTO   -1              -1              -1              -1            
        BETA  222.070000E-06  222.070000E-06  222.070000E-06  222.070000E-06 
          IS  100.000000E-12  100.000000E-12  100.000000E-12  100.000000E-12 


               X_U2B.jx1       X_U2B.jx2       
               NJF             NJF             
         VTO   -1              -1            
        BETA  222.070000E-06  222.070000E-06 
          IS  100.000000E-12  100.000000E-12 


**** 05/21/20 14:07:51 ****** PSpice 16.5.0 (April 2011) ****** ID# 0 ********

 ** Profile: "SCHEMATIC1-Worst-Case"  [ D:\University Projects\OrCAD Projects\Final-Schmitt-Trigger\Schmitt-Trigger-PSpiceFiles\SCHEM


 ****     Resistor MODEL PARAMETERS


******************************************************************************




               R_R22           R_R11           R_R13           R_R24           
           R    1               1               1               1            


               R_Rload         R_R41           R_R42           R_R31           
           R    1               1               1               1            


               R_R32           
           R    1            


**** 05/21/20 14:07:51 ****** PSpice 16.5.0 (April 2011) ****** ID# 0 ********

 ** Profile: "SCHEMATIC1-Worst-Case"  [ D:\University Projects\OrCAD Projects\Final-Schmitt-Trigger\Schmitt-Trigger-PSpiceFiles\SCHEM


 ****     Capacitor MODEL PARAMETERS


******************************************************************************




               C_C             
           C    1            



Mean Deviation =    -.165 
Sigma          =     .3018

 RUN                    MAX DEVIATION FROM NOMINAL

R_R13 R_R13 R            .5364  (1.78 sigma)  lower  at T =    2.8097E-03
                        (-998.51% change per 1% change in Model Parameter)

R_R11 R_R11 R            .4447  (1.47 sigma)  lower  at T =    2.9028E-03
                        ( 325.5300E+03% change per 1% change in Model Parameter)

C_C C_C C                .3962  (1.31 sigma)  higher  at T =    2.9054E-03
                        (-957.4 % change per 1% change in Model Parameter)

R_R41 R_R41 R            .3652  (1.21 sigma)  lower  at T =    2.9026E-03
                        ( 267.3500E+03% change per 1% change in Model Parameter)

R_R24 R_R24 R            .3139  (1.04 sigma)  lower  at T =    2.6141E-03
                        (-935.24% change per 1% change in Model Parameter)

R_R31 R_R31 R            .3085  (1.02 sigma)  lower  at T =    2.9047E-03
                        ( 225.8500E+03% change per 1% change in Model Parameter)

R_RLOAD R_RLOAD R        .2806  ( .93 sigma)  lower  at T =    1.9362E-03
                        (  32.5220E+03% change per 1% change in Model Parameter)

R_R22 R_R22 R            .2246  ( .74 sigma)  higher  at T =    2.0327E-03
                        ( 107.4200E+03% change per 1% change in Model Parameter)

R_R42 R_R42 R            .2155  ( .71 sigma)  lower  at T =    1.9361E-03
                        (  24.9760E+03% change per 1% change in Model Parameter)

R_R32 R_R32 R            .1941  ( .64 sigma)  higher  at T =  970.9100E-06
                        (-900.44% change per 1% change in Model Parameter)


**** 05/21/20 14:07:51 ****** PSpice 16.5.0 (April 2011) ****** ID# 0 ********

 ** Profile: "SCHEMATIC1-Worst-Case"  [ D:\University Projects\OrCAD Projects\Final-Schmitt-Trigger\Schmitt-Trigger-PSpiceFiles\SCHEM


 ****     UPDATED MODEL PARAMETERS         TEMPERATURE =   27.000 DEG C

                      WORST CASE ALL DEVICES

******************************************************************************



Device       MODEL        PARAMETER    NEW VALUE    
C_C          C_C          C               1.1           (Increased)  
R_R22        R_R22        R               1.01          (Increased)  
R_R11        R_R11        R                .99          (Decreased)  
R_R13        R_R13        R                .99          (Decreased)  
R_R24        R_R24        R                .99          (Decreased)  
R_Rload      R_Rload      R                .99          (Decreased)  
R_R41        R_R41        R                .95          (Decreased)  
R_R42        R_R42        R                .95          (Decreased)  
R_R31        R_R31        R                .99          (Decreased)  
R_R32        R_R32        R               1.01          (Increased)  
    

**** 05/21/20 14:07:51 ****** PSpice 16.5.0 (April 2011) ****** ID# 0 ********

 ** Profile: "SCHEMATIC1-Worst-Case"  [ D:\University Projects\OrCAD Projects\Final-Schmitt-Trigger\Schmitt-Trigger-PSpiceFiles\SCHEM


 ****     SORTED DEVIATIONS OF V(OUT)      TEMPERATURE =   27.000 DEG C

                      WORST CASE SUMMARY

******************************************************************************





Mean Deviation =    9.8263
Sigma          =    0     

 RUN                    MAX DEVIATION FROM NOMINAL

WORST CASE ALL DEVICES
                        9.8263  higher  at T =    1.2100E-03
                        ( -98.434% of Nominal)



          JOB CONCLUDED

**** 05/21/20 14:07:51 ****** PSpice 16.5.0 (April 2011) ****** ID# 0 ********

 ** Profile: "SCHEMATIC1-Worst-Case"  [ D:\University Projects\OrCAD Projects\Final-Schmitt-Trigger\Schmitt-Trigger-PSpiceFiles\SCHEM


 ****     JOB STATISTICS SUMMARY


******************************************************************************



  Total job time (using Solver 1)   =        5.38
