
**** 05/22/20 13:54:31 ****** PSpice 16.5.0 (April 2011) ****** ID# 0 ********

 ** Profile: "SCHEMATIC1-Transient2"  [ D:\University Projects\OrCAD Projects\Final-Schmitt-Trigger\schmitt-trigger-pspicefiles\schem


 ****     CIRCUIT DESCRIPTION


******************************************************************************




** Creating circuit file "Transient2.cir" 
** WARNING: THIS AUTOMATICALLY GENERATED FILE MAY BE OVERWRITTEN BY SUBSEQUENT SIMULATIONS

*Libraries: 
* Profile Libraries :
* Local Libraries :
* From [PSPICE NETLIST] section of C:\Cadence\SPB_16.5\tools\PSpice\PSpice.ini file:
.lib "nom.lib" 

*Analysis directives: 
.TRAN 1n 3ms 0 SKIPBP 
.FOUR 1k 10 V([OUT]) 
.PROBE V(alias(*)) I(alias(*)) W(alias(*)) D(alias(*)) NOISE(alias(*)) 
.INC "..\SCHEMATIC1.net" 



**** INCLUDING SCHEMATIC1.net ****
* source SCHMITT-TRIGGER
X_P21         N00405 N48574 OUTS8 POT PARAMS: SET=0.5 VALUE=5k
R_R22         N00405 0 R_R22 1.2k TC=0,0 
.model        R_R22 RES R=1 DEV=1% TC1=0 TC2=0
C_C         N00446 N38624 C_C 10n  TC=0,0 
.model        C_C CAP C=1 DEV=10% TC1=0 TC2=0 VC1=0 VC2=0
R_R11         N00546 OUTS8 R_R11 20k TC=0,0 
.model        R_R11 RES R=1 DEV=1% TC1=0 TC2=0
R_R13         N00546 N38624 R_R13 4.7k TC=0,0 
.model        R_R13 RES R=1 DEV=1% TC1=0 TC2=0
R_R24         N48574 N00446 R_R24 10k TC=0,0 
.model        R_R24 RES R=1 DEV=1% TC1=0 TC2=0
V_V1         +VCC 0 15Vdc
V_V2         -VCC 0 -15Vdc
X_U1A         N00546 0 +VCC -VCC OUTS8 TL082
X_U1B         0 N00446 +VCC -VCC N38624 TL082
R_Rload         OUT 0 R_Rload 25 TC=0,0 
.model        R_Rload RES R=1 DEV=1% TC1=0 TC2=0
D_D2         N38315 N38305 D1N1190 
D_D1         N38243 N38315 D1N1190 
Q_Q2         -VCC N38305 OUT MPS2907
R_R41         +VCC N38243 R_R41 1.2k TC=0,0 
.model        R_R41 RES R=1 DEV=5% TC1=0 TC2=0
Q_Q1         +VCC N38243 OUT MPS2716
R_R42         N38305 -VCC R_R42 1.2k TC=0,0 
.model        R_R42 RES R=1 DEV=5% TC1=0 TC2=0
X_U2B         N38624 N43623 +VCC -VCC N38315 TL082
R_R31         N43623 0 R_R31 10k TC=0,0 
.model        R_R31 RES R=1 DEV=1% TC1=0 TC2=0
R_R32         N43623 N43925 R_R32 10k TC=0,0 
.model        R_R32 RES R=1 DEV=1% TC1=0 TC2=0
X_P33         N43925 N43925 OUT POT PARAMS: SET={SET} VALUE=10k
D_Dz1         N45778 OUTS8 BZ-075 
D_Dz2         N45778 0 BZ-075 
.PARAM  set=0.5

**** RESUMING Transient2.cir ****
.END

**** 05/22/20 13:54:31 ****** PSpice 16.5.0 (April 2011) ****** ID# 0 ********

 ** Profile: "SCHEMATIC1-Transient2"  [ D:\University Projects\OrCAD Projects\Final-Schmitt-Trigger\schmitt-trigger-pspicefiles\schem


 ****     Diode MODEL PARAMETERS


******************************************************************************




               D1N1190         BZ-075          X_U1A.dx        X_U1A.dy        
          IS    1.331000E-06   10.000000E-15  800.000000E-18  800.000000E-18 
           N    2.108                                                        
         ISR   40.740000E-06    5.848000E-06                                 
         IKF   11.73                                                         
          BV  400               7.54                                         
         IBV  100.000000E-06     .1437                                       
          RS    1.029000E-03    1.000000E-03                    1.000000E-03 
          TT    5.000000E-09  144.300000E-09                                 
         CJO    1.000000E-12    1.000000E-12                   10.000000E-12 
          VJ     .7              .75                                         
           M                     .3333                                       


               X_U1B.dx        X_U1B.dy        X_U2B.dx        X_U2B.dy        
          IS  800.000000E-18  800.000000E-18  800.000000E-18  800.000000E-18 
          RS                    1.000000E-03                    1.000000E-03 
         CJO                   10.000000E-12                   10.000000E-12 


**** 05/22/20 13:54:31 ****** PSpice 16.5.0 (April 2011) ****** ID# 0 ********

 ** Profile: "SCHEMATIC1-Transient2"  [ D:\University Projects\OrCAD Projects\Final-Schmitt-Trigger\schmitt-trigger-pspicefiles\schem


 ****     BJT MODEL PARAMETERS


******************************************************************************




               MPS2907         MPS2716         
               PNP             NPN             
       LEVEL    1               1            
          IS    4.661000E-15    6.734000E-15 
          BF  402.8           383.9          
          NF    1               1            
         VAF  100              74.03         
         IKF     .1132           .06532      
         ISE   14.550000E-15    6.734000E-15 
          NE    1.352           1.247        
          BR    3.07             .7482       
          NR    1               1            
         ISS    0               0            
          RB   10              10            
          RE    0               0            
          RC     .6             1            
         CJE   26.220000E-12    4.493000E-12 
         VJE     .75             .75         
         MJE     .3809           .2593       
         CJC   21.350000E-12    3.118000E-12 
         VJC     .75             .75         
         MJC     .5234           .3086       
        XCJC    1               1            
         CJS    0               0            
         VJS     .75             .75         
          TF  417.600000E-12  301.500000E-12 
         XTF   20               2            
         VTF   12               4            
         ITF     .8              .4          
          TR   32.630000E-09  240.300000E-09 
         XTB    1.5             1.5          
          KF    0               0            
          AF    1               1            
          CN    2.2             2.42         
           D     .52             .87         


**** 05/22/20 13:54:31 ****** PSpice 16.5.0 (April 2011) ****** ID# 0 ********

 ** Profile: "SCHEMATIC1-Transient2"  [ D:\University Projects\OrCAD Projects\Final-Schmitt-Trigger\schmitt-trigger-pspicefiles\schem


 ****     Junction FET MODEL PARAMETERS


******************************************************************************




               X_U1A.jx1       X_U1A.jx2       X_U1B.jx1       X_U1B.jx2       
               NJF             NJF             NJF             NJF             
         VTO   -1              -1              -1              -1            
        BETA  222.070000E-06  222.070000E-06  222.070000E-06  222.070000E-06 
          IS  100.000000E-12  100.000000E-12  100.000000E-12  100.000000E-12 


               X_U2B.jx1       X_U2B.jx2       
               NJF             NJF             
         VTO   -1              -1            
        BETA  222.070000E-06  222.070000E-06 
          IS  100.000000E-12  100.000000E-12 


**** 05/22/20 13:54:31 ****** PSpice 16.5.0 (April 2011) ****** ID# 0 ********

 ** Profile: "SCHEMATIC1-Transient2"  [ D:\University Projects\OrCAD Projects\Final-Schmitt-Trigger\schmitt-trigger-pspicefiles\schem


 ****     Resistor MODEL PARAMETERS


******************************************************************************




               R_R22           R_R11           R_R13           R_R24           
           R    1               1               1               1            


               R_Rload         R_R41           R_R42           R_R31           
           R    1               1               1               1            


               R_R32           
           R    1            


**** 05/22/20 13:54:31 ****** PSpice 16.5.0 (April 2011) ****** ID# 0 ********

 ** Profile: "SCHEMATIC1-Transient2"  [ D:\University Projects\OrCAD Projects\Final-Schmitt-Trigger\schmitt-trigger-pspicefiles\schem


 ****     Capacitor MODEL PARAMETERS


******************************************************************************




               C_C             
           C    1            


**** 05/22/20 13:54:31 ****** PSpice 16.5.0 (April 2011) ****** ID# 0 ********

 ** Profile: "SCHEMATIC1-Transient2"  [ D:\University Projects\OrCAD Projects\Final-Schmitt-Trigger\schmitt-trigger-pspicefiles\schem


 ****     FOURIER ANALYSIS                 TEMPERATURE =   27.000 DEG C


******************************************************************************



FOURIER COMPONENTS OF TRANSIENT RESPONSE V(OUT)



 DC COMPONENT =  -5.463544E-02

 HARMONIC   FREQUENCY    FOURIER    NORMALIZED    PHASE        NORMALIZED
    NO         (HZ)     COMPONENT    COMPONENT    (DEG)       PHASE (DEG)

     1     1.000E+03    1.129E-01    1.000E+00   -6.656E+01    0.000E+00
     2     2.000E+03    1.627E-01    1.442E+00   -4.976E+01    8.336E+01
     3     3.000E+03    2.568E-01    2.276E+00   -3.918E+01    1.605E+02
     4     4.000E+03    5.343E-01    4.734E+00   -3.283E+01    2.334E+02
     5     5.000E+03    3.801E+00    3.368E+01   -2.718E+01    3.056E+02
     6     6.000E+03    8.729E-01    7.735E+00    1.560E+02    5.553E+02
     7     7.000E+03    4.131E-01    3.660E+00    1.568E+02    6.227E+02
     8     8.000E+03    2.833E-01    2.510E+00    1.575E+02    6.899E+02
     9     9.000E+03    2.196E-01    1.946E+00    1.574E+02    7.564E+02
    10     1.000E+04    1.837E-01    1.628E+00    1.567E+02    8.222E+02


     TOTAL HARMONIC DISTORTION =   3.535077E+03 PERCENT


          JOB CONCLUDED

**** 05/22/20 13:54:31 ****** PSpice 16.5.0 (April 2011) ****** ID# 0 ********

 ** Profile: "SCHEMATIC1-Transient2"  [ D:\University Projects\OrCAD Projects\Final-Schmitt-Trigger\schmitt-trigger-pspicefiles\schem


 ****     JOB STATISTICS SUMMARY


******************************************************************************



  Total job time (using Solver 1)   =         .84
